512
#forces [0 0 0] --- created by Molecular Workbench, http://mw.concord.org
Xe  -23.25863  -10.85402  -7.75288  0  0  0  0  0
Xe  -20.15747  -7.75287  -7.75288  0  0  0  0  0
Xe  -23.25863  -7.75287  -10.85402  0  0  0  0  0
Xe  -20.15747  -10.85402  -10.85402  0  0  0  0  0
Xe  -23.25863  -10.85402  -1.55058  0  0  0  0  0
Xe  -20.15747  -7.75287  -1.55058  0  0  0  0  0
Xe  -23.25863  -7.75287  -4.65173  0  0  0  0  0
Xe  -20.15747  -10.85402  -4.65173  0  0  0  0  0
Xe  -23.25863  -10.85402  4.65172  0  0  0  0  0
Xe  -20.15747  -7.75287  4.65172  0  0  0  0  0
Xe  -23.25863  -7.75287  1.55057  0  0  0  0  0
Xe  -20.15747  -10.85402  1.55057  0  0  0  0  0
Xe  -23.25863  -10.85402  10.85402  0  0  0  0  0
Xe  -20.15747  -7.75287  10.85402  0  0  0  0  0
Xe  -23.25863  -7.75287  7.75287  0  0  0  0  0
Xe  -20.15747  -10.85402  7.75287  0  0  0  0  0
Xe  -23.25863  -4.65172  -7.75288  0  0  0  0  0
Xe  -20.15747  -1.55057  -7.75288  0  0  0  0  0
Xe  -23.25863  -1.55057  -10.85402  0  0  0  0  0
Xe  -20.15747  -4.65172  -10.85402  0  0  0  0  0
Xe  -23.25863  -4.65172  -1.55058  0  0  0  0  0
Xe  -20.15747  -1.55057  -1.55058  0  0  0  0  0
Xe  -23.25863  -1.55057  -4.65173  0  0  0  0  0
Xe  -20.15747  -4.65172  -4.65173  0  0  0  0  0
Xe  -23.25863  -4.65172  4.65172  0  0  0  0  0
Xe  -20.15747  -1.55057  4.65172  0  0  0  0  0
Xe  -23.25863  -1.55057  1.55057  0  0  0  0  0
Xe  -20.15747  -4.65172  1.55057  0  0  0  0  0
Xe  -23.25863  -4.65172  10.85402  0  0  0  0  0
Xe  -20.15747  -1.55057  10.85402  0  0  0  0  0
Xe  -23.25863  -1.55057  7.75287  0  0  0  0  0
Xe  -20.15747  -4.65172  7.75287  0  0  0  0  0
Xe  -23.25863  1.55057  -7.75288  0  0  0  0  0
Xe  -20.15747  4.65172  -7.75288  0  0  0  0  0
Xe  -23.25863  4.65172  -10.85402  0  0  0  0  0
Xe  -20.15747  1.55057  -10.85402  0  0  0  0  0
Xe  -23.25863  1.55057  -1.55058  0  0  0  0  0
Xe  -20.15747  4.65172  -1.55058  0  0  0  0  0
Xe  -23.25863  4.65172  -4.65173  0  0  0  0  0
Xe  -20.15747  1.55057  -4.65173  0  0  0  0  0
Xe  -23.25863  1.55057  4.65172  0  0  0  0  0
Xe  -20.15747  4.65172  4.65172  0  0  0  0  0
Xe  -23.25863  4.65172  1.55057  0  0  0  0  0
Xe  -20.15747  1.55057  1.55057  0  0  0  0  0
Xe  -23.25863  1.55057  10.85402  0  0  0  0  0
Xe  -20.15747  4.65172  10.85402  0  0  0  0  0
Xe  -23.25863  4.65172  7.75287  0  0  0  0  0
Xe  -20.15747  1.55057  7.75287  0  0  0  0  0
Xe  -23.25863  7.75287  -7.75288  0  0  0  0  0
Xe  -20.15747  10.85402  -7.75288  0  0  0  0  0
Xe  -23.25863  10.85402  -10.85402  0  0  0  0  0
Xe  -20.15747  7.75287  -10.85402  0  0  0  0  0
Xe  -23.25863  7.75287  -1.55058  0  0  0  0  0
Xe  -20.15747  10.85402  -1.55058  0  0  0  0  0
Xe  -23.25863  10.85402  -4.65173  0  0  0  0  0
Xe  -20.15747  7.75287  -4.65173  0  0  0  0  0
Xe  -23.25863  7.75287  4.65172  0  0  0  0  0
Xe  -20.15747  10.85402  4.65172  0  0  0  0  0
Xe  -23.25863  10.85402  1.55057  0  0  0  0  0
Xe  -20.15747  7.75287  1.55057  0  0  0  0  0
Xe  -23.25863  7.75287  10.85402  0  0  0  0  0
Xe  -20.15747  10.85402  10.85402  0  0  0  0  0
Xe  -23.25863  10.85402  7.75287  0  0  0  0  0
Xe  -20.15747  7.75287  7.75287  0  0  0  0  0
Xe  -17.05633  -10.85402  -7.75288  0  0  0  0  0
Xe  -13.95518  -7.75287  -7.75288  0  0  0  0  0
Xe  -17.05633  -7.75287  -10.85402  0  0  0  0  0
Xe  -13.95518  -10.85402  -10.85402  0  0  0  0  0
Xe  -17.05633  -10.85402  -1.55058  0  0  0  0  0
Xe  -13.95518  -7.75287  -1.55058  0  0  0  0  0
Xe  -17.05633  -7.75287  -4.65173  0  0  0  0  0
Xe  -13.95518  -10.85402  -4.65173  0  0  0  0  0
Xe  -17.05633  -10.85402  4.65172  0  0  0  0  0
Xe  -13.95518  -7.75287  4.65172  0  0  0  0  0
Xe  -17.05633  -7.75287  1.55057  0  0  0  0  0
Xe  -13.95518  -10.85402  1.55057  0  0  0  0  0
Xe  -17.05633  -10.85402  10.85402  0  0  0  0  0
Xe  -13.95518  -7.75287  10.85402  0  0  0  0  0
Xe  -17.05633  -7.75287  7.75287  0  0  0  0  0
Xe  -13.95518  -10.85402  7.75287  0  0  0  0  0
Xe  -17.05633  -4.65172  -7.75288  0  0  0  0  0
Xe  -13.95518  -1.55057  -7.75288  0  0  0  0  0
Xe  -17.05633  -1.55057  -10.85402  0  0  0  0  0
Xe  -13.95518  -4.65172  -10.85402  0  0  0  0  0
Xe  -17.05633  -4.65172  -1.55058  0  0  0  0  0
Xe  -13.95518  -1.55057  -1.55058  0  0  0  0  0
Xe  -17.05633  -1.55057  -4.65173  0  0  0  0  0
Xe  -13.95518  -4.65172  -4.65173  0  0  0  0  0
Xe  -17.05633  -4.65172  4.65172  0  0  0  0  0
Xe  -13.95518  -1.55057  4.65172  0  0  0  0  0
Xe  -17.05633  -1.55057  1.55057  0  0  0  0  0
Xe  -13.95518  -4.65172  1.55057  0  0  0  0  0
Xe  -17.05633  -4.65172  10.85402  0  0  0  0  0
Xe  -13.95518  -1.55057  10.85402  0  0  0  0  0
Xe  -17.05633  -1.55057  7.75287  0  0  0  0  0
Xe  -13.95518  -4.65172  7.75287  0  0  0  0  0
Xe  -17.05633  1.55057  -7.75288  0  0  0  0  0
Xe  -13.95518  4.65172  -7.75288  0  0  0  0  0
Xe  -17.05633  4.65172  -10.85402  0  0  0  0  0
Xe  -13.95518  1.55057  -10.85402  0  0  0  0  0
Xe  -17.05633  1.55057  -1.55058  0  0  0  0  0
Xe  -13.95518  4.65172  -1.55058  0  0  0  0  0
Xe  -17.05633  4.65172  -4.65173  0  0  0  0  0
Xe  -13.95518  1.55057  -4.65173  0  0  0  0  0
Xe  -17.05633  1.55057  4.65172  0  0  0  0  0
Xe  -13.95518  4.65172  4.65172  0  0  0  0  0
Xe  -17.05633  4.65172  1.55057  0  0  0  0  0
Xe  -13.95518  1.55057  1.55057  0  0  0  0  0
Xe  -17.05633  1.55057  10.85402  0  0  0  0  0
Xe  -13.95518  4.65172  10.85402  0  0  0  0  0
Xe  -17.05633  4.65172  7.75287  0  0  0  0  0
Xe  -13.95518  1.55057  7.75287  0  0  0  0  0
Xe  -17.05633  7.75287  -7.75288  0  0  0  0  0
Xe  -13.95518  10.85402  -7.75288  0  0  0  0  0
Xe  -17.05633  10.85402  -10.85402  0  0  0  0  0
Xe  -13.95518  7.75287  -10.85402  0  0  0  0  0
Xe  -17.05633  7.75287  -1.55058  0  0  0  0  0
Xe  -13.95518  10.85402  -1.55058  0  0  0  0  0
Xe  -17.05633  10.85402  -4.65173  0  0  0  0  0
Xe  -13.95518  7.75287  -4.65173  0  0  0  0  0
Xe  -17.05633  7.75287  4.65172  0  0  0  0  0
Xe  -13.95518  10.85402  4.65172  0  0  0  0  0
Xe  -17.05633  10.85402  1.55057  0  0  0  0  0
Xe  -13.95518  7.75287  1.55057  0  0  0  0  0
Xe  -17.05633  7.75287  10.85402  0  0  0  0  0
Xe  -13.95518  10.85402  10.85402  0  0  0  0  0
Xe  -17.05633  10.85402  7.75287  0  0  0  0  0
Xe  -13.95518  7.75287  7.75287  0  0  0  0  0
Xe  -10.85403  -10.85402  -7.75288  0  0  0  0  0
Xe  -7.75288  -7.75287  -7.75288  0  0  0  0  0
Xe  -10.85403  -7.75287  -10.85402  0  0  0  0  0
Xe  -7.75288  -10.85402  -10.85402  0  0  0  0  0
Xe  -10.85403  -10.85402  -1.55058  0  0  0  0  0
Xe  -7.75288  -7.75287  -1.55058  0  0  0  0  0
Xe  -10.85403  -7.75287  -4.65173  0  0  0  0  0
Xe  -7.75288  -10.85402  -4.65173  0  0  0  0  0
Xe  -10.85403  -10.85402  4.65172  0  0  0  0  0
Xe  -7.75288  -7.75287  4.65172  0  0  0  0  0
Xe  -10.85403  -7.75287  1.55057  0  0  0  0  0
Xe  -7.75288  -10.85402  1.55057  0  0  0  0  0
Xe  -10.85403  -10.85402  10.85402  0  0  0  0  0
Xe  -7.75288  -7.75287  10.85402  0  0  0  0  0
Xe  -10.85403  -7.75287  7.75287  0  0  0  0  0
Xe  -7.75288  -10.85402  7.75287  0  0  0  0  0
Xe  -10.85403  -4.65172  -7.75288  0  0  0  0  0
Xe  -7.75288  -1.55057  -7.75288  0  0  0  0  0
Xe  -10.85403  -1.55057  -10.85402  0  0  0  0  0
Xe  -7.75288  -4.65172  -10.85402  0  0  0  0  0
Xe  -10.85403  -4.65172  -1.55058  0  0  0  0  0
Xe  -7.75288  -1.55057  -1.55058  0  0  0  0  0
Xe  -10.85403  -1.55057  -4.65173  0  0  0  0  0
Xe  -7.75288  -4.65172  -4.65173  0  0  0  0  0
Xe  -10.85403  -4.65172  4.65172  0  0  0  0  0
Xe  -7.75288  -1.55057  4.65172  0  0  0  0  0
Xe  -10.85403  -1.55057  1.55057  0  0  0  0  0
Xe  -7.75288  -4.65172  1.55057  0  0  0  0  0
Xe  -10.85403  -4.65172  10.85402  0  0  0  0  0
Xe  -7.75288  -1.55057  10.85402  0  0  0  0  0
Xe  -10.85403  -1.55057  7.75287  0  0  0  0  0
Xe  -7.75288  -4.65172  7.75287  0  0  0  0  0
Xe  -10.85403  1.55057  -7.75288  0  0  0  0  0
Xe  -7.75288  4.65172  -7.75288  0  0  0  0  0
Xe  -10.85403  4.65172  -10.85402  0  0  0  0  0
Xe  -7.75288  1.55057  -10.85402  0  0  0  0  0
Xe  -10.85403  1.55057  -1.55058  0  0  0  0  0
Xe  -7.75288  4.65172  -1.55058  0  0  0  0  0
Xe  -10.85403  4.65172  -4.65173  0  0  0  0  0
Xe  -7.75288  1.55057  -4.65173  0  0  0  0  0
Xe  -10.85403  1.55057  4.65172  0  0  0  0  0
Xe  -7.75288  4.65172  4.65172  0  0  0  0  0
Xe  -10.85403  4.65172  1.55057  0  0  0  0  0
Xe  -7.75288  1.55057  1.55057  0  0  0  0  0
Xe  -10.85403  1.55057  10.85402  0  0  0  0  0
Xe  -7.75288  4.65172  10.85402  0  0  0  0  0
Xe  -10.85403  4.65172  7.75287  0  0  0  0  0
Xe  -7.75288  1.55057  7.75287  0  0  0  0  0
Xe  -10.85403  7.75287  -7.75288  0  0  0  0  0
Xe  -7.75288  10.85402  -7.75288  0  0  0  0  0
Xe  -10.85403  10.85402  -10.85402  0  0  0  0  0
Xe  -7.75288  7.75287  -10.85402  0  0  0  0  0
Xe  -10.85403  7.75287  -1.55058  0  0  0  0  0
Xe  -7.75288  10.85402  -1.55058  0  0  0  0  0
Xe  -10.85403  10.85402  -4.65173  0  0  0  0  0
Xe  -7.75288  7.75287  -4.65173  0  0  0  0  0
Xe  -10.85403  7.75287  4.65172  0  0  0  0  0
Xe  -7.75288  10.85402  4.65172  0  0  0  0  0
Xe  -10.85403  10.85402  1.55057  0  0  0  0  0
Xe  -7.75288  7.75287  1.55057  0  0  0  0  0
Xe  -10.85403  7.75287  10.85402  0  0  0  0  0
Xe  -7.75288  10.85402  10.85402  0  0  0  0  0
Xe  -10.85403  10.85402  7.75287  0  0  0  0  0
Xe  -7.75288  7.75287  7.75287  0  0  0  0  0
Xe  -4.65173  -10.85402  -7.75288  0  0  0  0  0
Xe  -1.55058  -7.75287  -7.75288  0  0  0  0  0
Xe  -4.65173  -7.75287  -10.85402  0  0  0  0  0
Xe  -1.55058  -10.85402  -10.85402  0  0  0  0  0
Xe  -4.65173  -10.85402  -1.55058  0  0  0  0  0
Xe  -1.55058  -7.75287  -1.55058  0  0  0  0  0
Xe  -4.65173  -7.75287  -4.65173  0  0  0  0  0
Xe  -1.55058  -10.85402  -4.65173  0  0  0  0  0
Xe  -4.65173  -10.85402  4.65172  0  0  0  0  0
Xe  -1.55058  -7.75287  4.65172  0  0  0  0  0
Xe  -4.65173  -7.75287  1.55057  0  0  0  0  0
Xe  -1.55058  -10.85402  1.55057  0  0  0  0  0
Xe  -4.65173  -10.85402  10.85402  0  0  0  0  0
Xe  -1.55058  -7.75287  10.85402  0  0  0  0  0
Xe  -4.65173  -7.75287  7.75287  0  0  0  0  0
Xe  -1.55058  -10.85402  7.75287  0  0  0  0  0
Xe  -4.65173  -4.65172  -7.75288  0  0  0  0  0
Xe  -1.55058  -1.55057  -7.75288  0  0  0  0  0
Xe  -4.65173  -1.55057  -10.85402  0  0  0  0  0
Xe  -1.55058  -4.65172  -10.85402  0  0  0  0  0
Xe  -4.65173  -4.65172  -1.55058  0  0  0  0  0
Xe  -1.55058  -1.55057  -1.55058  0  0  0  0  0
Xe  -4.65173  -1.55057  -4.65173  0  0  0  0  0
Xe  -1.55058  -4.65172  -4.65173  0  0  0  0  0
Xe  -4.65173  -4.65172  4.65172  0  0  0  0  0
Xe  -1.55058  -1.55057  4.65172  0  0  0  0  0
Xe  -4.65173  -1.55057  1.55057  0  0  0  0  0
Xe  -1.55058  -4.65172  1.55057  0  0  0  0  0
Xe  -4.65173  -4.65172  10.85402  0  0  0  0  0
Xe  -1.55058  -1.55057  10.85402  0  0  0  0  0
Xe  -4.65173  -1.55057  7.75287  0  0  0  0  0
Xe  -1.55058  -4.65172  7.75287  0  0  0  0  0
Xe  -4.65173  1.55057  -7.75288  0  0  0  0  0
Xe  -1.55058  4.65172  -7.75288  0  0  0  0  0
Xe  -4.65173  4.65172  -10.85402  0  0  0  0  0
Xe  -1.55058  1.55057  -10.85402  0  0  0  0  0
Xe  -4.65173  1.55057  -1.55058  0  0  0  0  0
Xe  -1.55058  4.65172  -1.55058  0  0  0  0  0
Xe  -4.65173  4.65172  -4.65173  0  0  0  0  0
Xe  -1.55058  1.55057  -4.65173  0  0  0  0  0
Xe  -4.65173  1.55057  4.65172  0  0  0  0  0
Xe  -1.55058  4.65172  4.65172  0  0  0  0  0
Xe  -4.65173  4.65172  1.55057  0  0  0  0  0
Xe  -1.55058  1.55057  1.55057  0  0  0  0  0
Xe  -4.65173  1.55057  10.85402  0  0  0  0  0
Xe  -1.55058  4.65172  10.85402  0  0  0  0  0
Xe  -4.65173  4.65172  7.75287  0  0  0  0  0
Xe  -1.55058  1.55057  7.75287  0  0  0  0  0
Xe  -4.65173  7.75287  -7.75288  0  0  0  0  0
Xe  -1.55058  10.85402  -7.75288  0  0  0  0  0
Xe  -4.65173  10.85402  -10.85402  0  0  0  0  0
Xe  -1.55058  7.75287  -10.85402  0  0  0  0  0
Xe  -4.65173  7.75287  -1.55058  0  0  0  0  0
Xe  -1.55058  10.85402  -1.55058  0  0  0  0  0
Xe  -4.65173  10.85402  -4.65173  0  0  0  0  0
Xe  -1.55058  7.75287  -4.65173  0  0  0  0  0
Xe  -4.65173  7.75287  4.65172  0  0  0  0  0
Xe  -1.55058  10.85402  4.65172  0  0  0  0  0
Xe  -4.65173  10.85402  1.55057  0  0  0  0  0
Xe  -1.55058  7.75287  1.55057  0  0  0  0  0
Xe  -4.65173  7.75287  10.85402  0  0  0  0  0
Xe  -1.55058  10.85402  10.85402  0  0  0  0  0
Xe  -4.65173  10.85402  7.75287  0  0  0  0  0
Xe  -1.55058  7.75287  7.75287  0  0  0  0  0
Xe  1.55057  -10.85402  -7.75288  0  0  0  0  0
Xe  4.65172  -7.75287  -7.75288  0  0  0  0  0
Xe  1.55057  -7.75287  -10.85402  0  0  0  0  0
Xe  4.65172  -10.85402  -10.85402  0  0  0  0  0
Xe  1.55057  -10.85402  -1.55058  0  0  0  0  0
Xe  4.65172  -7.75287  -1.55058  0  0  0  0  0
Xe  1.55057  -7.75287  -4.65173  0  0  0  0  0
Xe  4.65172  -10.85402  -4.65173  0  0  0  0  0
Xe  1.55057  -10.85402  4.65172  0  0  0  0  0
Xe  4.65172  -7.75287  4.65172  0  0  0  0  0
Xe  1.55057  -7.75287  1.55057  0  0  0  0  0
Xe  4.65172  -10.85402  1.55057  0  0  0  0  0
Xe  1.55057  -10.85402  10.85402  0  0  0  0  0
Xe  4.65172  -7.75287  10.85402  0  0  0  0  0
Xe  1.55057  -7.75287  7.75287  0  0  0  0  0
Xe  4.65172  -10.85402  7.75287  0  0  0  0  0
Xe  1.55057  -4.65172  -7.75288  0  0  0  0  0
Xe  4.65172  -1.55057  -7.75288  0  0  0  0  0
Xe  1.55057  -1.55057  -10.85402  0  0  0  0  0
Xe  4.65172  -4.65172  -10.85402  0  0  0  0  0
Xe  1.55057  -4.65172  -1.55058  0  0  0  0  0
Xe  4.65172  -1.55057  -1.55058  0  0  0  0  0
Xe  1.55057  -1.55057  -4.65173  0  0  0  0  0
Xe  4.65172  -4.65172  -4.65173  0  0  0  0  0
Xe  1.55057  -4.65172  4.65172  0  0  0  0  0
Xe  4.65172  -1.55057  4.65172  0  0  0  0  0
Xe  1.55057  -1.55057  1.55057  0  0  0  0  0
Xe  4.65172  -4.65172  1.55057  0  0  0  0  0
Xe  1.55057  -4.65172  10.85402  0  0  0  0  0
Xe  4.65172  -1.55057  10.85402  0  0  0  0  0
Xe  1.55057  -1.55057  7.75287  0  0  0  0  0
Xe  4.65172  -4.65172  7.75287  0  0  0  0  0
Xe  1.55057  1.55057  -7.75288  0  0  0  0  0
Xe  4.65172  4.65172  -7.75288  0  0  0  0  0
Xe  1.55057  4.65172  -10.85402  0  0  0  0  0
Xe  4.65172  1.55057  -10.85402  0  0  0  0  0
Xe  1.55057  1.55057  -1.55058  0  0  0  0  0
Xe  4.65172  4.65172  -1.55058  0  0  0  0  0
Xe  1.55057  4.65172  -4.65173  0  0  0  0  0
Xe  4.65172  1.55057  -4.65173  0  0  0  0  0
Xe  1.55057  1.55057  4.65172  0  0  0  0  0
Xe  4.65172  4.65172  4.65172  0  0  0  0  0
Xe  1.55057  4.65172  1.55057  0  0  0  0  0
Xe  4.65172  1.55057  1.55057  0  0  0  0  0
Xe  1.55057  1.55057  10.85402  0  0  0  0  0
Xe  4.65172  4.65172  10.85402  0  0  0  0  0
Xe  1.55057  4.65172  7.75287  0  0  0  0  0
Xe  4.65172  1.55057  7.75287  0  0  0  0  0
Xe  1.55057  7.75287  -7.75288  0  0  0  0  0
Xe  4.65172  10.85402  -7.75288  0  0  0  0  0
Xe  1.55057  10.85402  -10.85402  0  0  0  0  0
Xe  4.65172  7.75287  -10.85402  0  0  0  0  0
Xe  1.55057  7.75287  -1.55058  0  0  0  0  0
Xe  4.65172  10.85402  -1.55058  0  0  0  0  0
Xe  1.55057  10.85402  -4.65173  0  0  0  0  0
Xe  4.65172  7.75287  -4.65173  0  0  0  0  0
Xe  1.55057  7.75287  4.65172  0  0  0  0  0
Xe  4.65172  10.85402  4.65172  0  0  0  0  0
Xe  1.55057  10.85402  1.55057  0  0  0  0  0
Xe  4.65172  7.75287  1.55057  0  0  0  0  0
Xe  1.55057  7.75287  10.85402  0  0  0  0  0
Xe  4.65172  10.85402  10.85402  0  0  0  0  0
Xe  1.55057  10.85402  7.75287  0  0  0  0  0
Xe  4.65172  7.75287  7.75287  0  0  0  0  0
Xe  7.75287  -10.85402  -7.75288  0  0  0  0  0
Xe  10.85402  -7.75287  -7.75288  0  0  0  0  0
Xe  7.75287  -7.75287  -10.85402  0  0  0  0  0
Xe  10.85402  -10.85402  -10.85402  0  0  0  0  0
Xe  7.75287  -10.85402  -1.55058  0  0  0  0  0
Xe  10.85402  -7.75287  -1.55058  0  0  0  0  0
Xe  7.75287  -7.75287  -4.65173  0  0  0  0  0
Xe  10.85402  -10.85402  -4.65173  0  0  0  0  0
Xe  7.75287  -10.85402  4.65172  0  0  0  0  0
Xe  10.85402  -7.75287  4.65172  0  0  0  0  0
Xe  7.75287  -7.75287  1.55057  0  0  0  0  0
Xe  10.85402  -10.85402  1.55057  0  0  0  0  0
Xe  7.75287  -10.85402  10.85402  0  0  0  0  0
Xe  10.85402  -7.75287  10.85402  0  0  0  0  0
Xe  7.75287  -7.75287  7.75287  0  0  0  0  0
Xe  10.85402  -10.85402  7.75287  0  0  0  0  0
Xe  7.75287  -4.65172  -7.75288  0  0  0  0  0
Xe  10.85402  -1.55057  -7.75288  0  0  0  0  0
Xe  7.75287  -1.55057  -10.85402  0  0  0  0  0
Xe  10.85402  -4.65172  -10.85402  0  0  0  0  0
Xe  7.75287  -4.65172  -1.55058  0  0  0  0  0
Xe  10.85402  -1.55057  -1.55058  0  0  0  0  0
Xe  7.75287  -1.55057  -4.65173  0  0  0  0  0
Xe  10.85402  -4.65172  -4.65173  0  0  0  0  0
Xe  7.75287  -4.65172  4.65172  0  0  0  0  0
Xe  10.85402  -1.55057  4.65172  0  0  0  0  0
Xe  7.75287  -1.55057  1.55057  0  0  0  0  0
Xe  10.85402  -4.65172  1.55057  0  0  0  0  0
Xe  7.75287  -4.65172  10.85402  0  0  0  0  0
Xe  10.85402  -1.55057  10.85402  0  0  0  0  0
Xe  7.75287  -1.55057  7.75287  0  0  0  0  0
Xe  10.85402  -4.65172  7.75287  0  0  0  0  0
Xe  7.75287  1.55057  -7.75288  0  0  0  0  0
Xe  10.85402  4.65172  -7.75288  0  0  0  0  0
Xe  7.75287  4.65172  -10.85402  0  0  0  0  0
Xe  10.85402  1.55057  -10.85402  0  0  0  0  0
Xe  7.75287  1.55057  -1.55058  0  0  0  0  0
Xe  10.85402  4.65172  -1.55058  0  0  0  0  0
Xe  7.75287  4.65172  -4.65173  0  0  0  0  0
Xe  10.85402  1.55057  -4.65173  0  0  0  0  0
Xe  7.75287  1.55057  4.65172  0  0  0  0  0
Xe  10.85402  4.65172  4.65172  0  0  0  0  0
Xe  7.75287  4.65172  1.55057  0  0  0  0  0
Xe  10.85402  1.55057  1.55057  0  0  0  0  0
Xe  7.75287  1.55057  10.85402  0  0  0  0  0
Xe  10.85402  4.65172  10.85402  0  0  0  0  0
Xe  7.75287  4.65172  7.75287  0  0  0  0  0
Xe  10.85402  1.55057  7.75287  0  0  0  0  0
Xe  7.75287  7.75287  -7.75288  0  0  0  0  0
Xe  10.85402  10.85402  -7.75288  0  0  0  0  0
Xe  7.75287  10.85402  -10.85402  0  0  0  0  0
Xe  10.85402  7.75287  -10.85402  0  0  0  0  0
Xe  7.75287  7.75287  -1.55058  0  0  0  0  0
Xe  10.85402  10.85402  -1.55058  0  0  0  0  0
Xe  7.75287  10.85402  -4.65173  0  0  0  0  0
Xe  10.85402  7.75287  -4.65173  0  0  0  0  0
Xe  7.75287  7.75287  4.65172  0  0  0  0  0
Xe  10.85402  10.85402  4.65172  0  0  0  0  0
Xe  7.75287  10.85402  1.55057  0  0  0  0  0
Xe  10.85402  7.75287  1.55057  0  0  0  0  0
Xe  7.75287  7.75287  10.85402  0  0  0  0  0
Xe  10.85402  10.85402  10.85402  0  0  0  0  0
Xe  7.75287  10.85402  7.75287  0  0  0  0  0
Xe  10.85402  7.75287  7.75287  0  0  0  0  0
Xe  13.95517  -10.85402  -7.75288  0  0  0  0  0
Xe  17.05632  -7.75287  -7.75288  0  0  0  0  0
Xe  13.95517  -7.75287  -10.85402  0  0  0  0  0
Xe  17.05632  -10.85402  -10.85402  0  0  0  0  0
Xe  13.95517  -10.85402  -1.55058  0  0  0  0  0
Xe  17.05632  -7.75287  -1.55058  0  0  0  0  0
Xe  13.95517  -7.75287  -4.65173  0  0  0  0  0
Xe  17.05632  -10.85402  -4.65173  0  0  0  0  0
Xe  13.95517  -10.85402  4.65172  0  0  0  0  0
Xe  17.05632  -7.75287  4.65172  0  0  0  0  0
Xe  13.95517  -7.75287  1.55057  0  0  0  0  0
Xe  17.05632  -10.85402  1.55057  0  0  0  0  0
Xe  13.95517  -10.85402  10.85402  0  0  0  0  0
Xe  17.05632  -7.75287  10.85402  0  0  0  0  0
Xe  13.95517  -7.75287  7.75287  0  0  0  0  0
Xe  17.05632  -10.85402  7.75287  0  0  0  0  0
Xe  13.95517  -4.65172  -7.75288  0  0  0  0  0
Xe  17.05632  -1.55057  -7.75288  0  0  0  0  0
Xe  13.95517  -1.55057  -10.85402  0  0  0  0  0
Xe  17.05632  -4.65172  -10.85402  0  0  0  0  0
Xe  13.95517  -4.65172  -1.55058  0  0  0  0  0
Xe  17.05632  -1.55057  -1.55058  0  0  0  0  0
Xe  13.95517  -1.55057  -4.65173  0  0  0  0  0
Xe  17.05632  -4.65172  -4.65173  0  0  0  0  0
Xe  13.95517  -4.65172  4.65172  0  0  0  0  0
Xe  17.05632  -1.55057  4.65172  0  0  0  0  0
Xe  13.95517  -1.55057  1.55057  0  0  0  0  0
Xe  17.05632  -4.65172  1.55057  0  0  0  0  0
Xe  13.95517  -4.65172  10.85402  0  0  0  0  0
Xe  17.05632  -1.55057  10.85402  0  0  0  0  0
Xe  13.95517  -1.55057  7.75287  0  0  0  0  0
Xe  17.05632  -4.65172  7.75287  0  0  0  0  0
Xe  13.95517  1.55057  -7.75288  0  0  0  0  0
Xe  17.05632  4.65172  -7.75288  0  0  0  0  0
Xe  13.95517  4.65172  -10.85402  0  0  0  0  0
Xe  17.05632  1.55057  -10.85402  0  0  0  0  0
Xe  13.95517  1.55057  -1.55058  0  0  0  0  0
Xe  17.05632  4.65172  -1.55058  0  0  0  0  0
Xe  13.95517  4.65172  -4.65173  0  0  0  0  0
Xe  17.05632  1.55057  -4.65173  0  0  0  0  0
Xe  13.95517  1.55057  4.65172  0  0  0  0  0
Xe  17.05632  4.65172  4.65172  0  0  0  0  0
Xe  13.95517  4.65172  1.55057  0  0  0  0  0
Xe  17.05632  1.55057  1.55057  0  0  0  0  0
Xe  13.95517  1.55057  10.85402  0  0  0  0  0
Xe  17.05632  4.65172  10.85402  0  0  0  0  0
Xe  13.95517  4.65172  7.75287  0  0  0  0  0
Xe  17.05632  1.55057  7.75287  0  0  0  0  0
Xe  13.95517  7.75287  -7.75288  0  0  0  0  0
Xe  17.05632  10.85402  -7.75288  0  0  0  0  0
Xe  13.95517  10.85402  -10.85402  0  0  0  0  0
Xe  17.05632  7.75287  -10.85402  0  0  0  0  0
Xe  13.95517  7.75287  -1.55058  0  0  0  0  0
Xe  17.05632  10.85402  -1.55058  0  0  0  0  0
Xe  13.95517  10.85402  -4.65173  0  0  0  0  0
Xe  17.05632  7.75287  -4.65173  0  0  0  0  0
Xe  13.95517  7.75287  4.65172  0  0  0  0  0
Xe  17.05632  10.85402  4.65172  0  0  0  0  0
Xe  13.95517  10.85402  1.55057  0  0  0  0  0
Xe  17.05632  7.75287  1.55057  0  0  0  0  0
Xe  13.95517  7.75287  10.85402  0  0  0  0  0
Xe  17.05632  10.85402  10.85402  0  0  0  0  0
Xe  13.95517  10.85402  7.75287  0  0  0  0  0
Xe  17.05632  7.75287  7.75287  0  0  0  0  0
Xe  20.15747  -10.85402  -7.75288  0  0  0  0  0
Xe  23.25862  -7.75287  -7.75288  0  0  0  0  0
Xe  20.15747  -7.75287  -10.85402  0  0  0  0  0
Xe  23.25862  -10.85402  -10.85402  0  0  0  0  0
Xe  20.15747  -10.85402  -1.55058  0  0  0  0  0
Xe  23.25862  -7.75287  -1.55058  0  0  0  0  0
Xe  20.15747  -7.75287  -4.65173  0  0  0  0  0
Xe  23.25862  -10.85402  -4.65173  0  0  0  0  0
Xe  20.15747  -10.85402  4.65172  0  0  0  0  0
Xe  23.25862  -7.75287  4.65172  0  0  0  0  0
Xe  20.15747  -7.75287  1.55057  0  0  0  0  0
Xe  23.25862  -10.85402  1.55057  0  0  0  0  0
Xe  20.15747  -10.85402  10.85402  0  0  0  0  0
Xe  23.25862  -7.75287  10.85402  0  0  0  0  0
Xe  20.15747  -7.75287  7.75287  0  0  0  0  0
Xe  23.25862  -10.85402  7.75287  0  0  0  0  0
Xe  20.15747  -4.65172  -7.75288  0  0  0  0  0
Xe  23.25862  -1.55057  -7.75288  0  0  0  0  0
Xe  20.15747  -1.55057  -10.85402  0  0  0  0  0
Xe  23.25862  -4.65172  -10.85402  0  0  0  0  0
Xe  20.15747  -4.65172  -1.55058  0  0  0  0  0
Xe  23.25862  -1.55057  -1.55058  0  0  0  0  0
Xe  20.15747  -1.55057  -4.65173  0  0  0  0  0
Xe  23.25862  -4.65172  -4.65173  0  0  0  0  0
Xe  20.15747  -4.65172  4.65172  0  0  0  0  0
Xe  23.25862  -1.55057  4.65172  0  0  0  0  0
Xe  20.15747  -1.55057  1.55057  0  0  0  0  0
Xe  23.25862  -4.65172  1.55057  0  0  0  0  0
Xe  20.15747  -4.65172  10.85402  0  0  0  0  0
Xe  23.25862  -1.55057  10.85402  0  0  0  0  0
Xe  20.15747  -1.55057  7.75287  0  0  0  0  0
Xe  23.25862  -4.65172  7.75287  0  0  0  0  0
Xe  20.15747  1.55057  -7.75288  0  0  0  0  0
Xe  23.25862  4.65172  -7.75288  0  0  0  0  0
Xe  20.15747  4.65172  -10.85402  0  0  0  0  0
Xe  23.25862  1.55057  -10.85402  0  0  0  0  0
Xe  20.15747  1.55057  -1.55058  0  0  0  0  0
Xe  23.25862  4.65172  -1.55058  0  0  0  0  0
Xe  20.15747  4.65172  -4.65173  0  0  0  0  0
Xe  23.25862  1.55057  -4.65173  0  0  0  0  0
Xe  20.15747  1.55057  4.65172  0  0  0  0  0
Xe  23.25862  4.65172  4.65172  0  0  0  0  0
Xe  20.15747  4.65172  1.55057  0  0  0  0  0
Xe  23.25862  1.55057  1.55057  0  0  0  0  0
Xe  20.15747  1.55057  10.85402  0  0  0  0  0
Xe  23.25862  4.65172  10.85402  0  0  0  0  0
Xe  20.15747  4.65172  7.75287  0  0  0  0  0
Xe  23.25862  1.55057  7.75287  0  0  0  0  0
Xe  20.15747  7.75287  -7.75288  0  0  0  0  0
Xe  23.25862  10.85402  -7.75288  0  0  0  0  0
Xe  20.15747  10.85402  -10.85402  0  0  0  0  0
Xe  23.25862  7.75287  -10.85402  0  0  0  0  0
Xe  20.15747  7.75287  -1.55058  0  0  0  0  0
Xe  23.25862  10.85402  -1.55058  0  0  0  0  0
Xe  20.15747  10.85402  -4.65173  0  0  0  0  0
Xe  23.25862  7.75287  -4.65173  0  0  0  0  0
Xe  20.15747  7.75287  4.65172  0  0  0  0  0
Xe  23.25862  10.85402  4.65172  0  0  0  0  0
Xe  20.15747  10.85402  1.55057  0  0  0  0  0
Xe  23.25862  7.75287  1.55057  0  0  0  0  0
Xe  20.15747  7.75287  10.85402  0  0  0  0  0
Xe  23.25862  10.85402  10.85402  0  0  0  0  0
Xe  20.15747  10.85402  7.75287  0  0  0  0  0
Xe  23.25862  7.75287  7.75287  0  0  0  0  0
